data__(Pauling_#457969)_1

_audit_creation_date               2014-07-16
_audit_creation_method             'generated by MedeA 2.14.1'

_chemical_formula_sum              'Ta'

_symmetry_space_group_name_H-M     'Im-3m'
_symmetry_Int_Tables_number        229

_cell_length_a                     3.29500
_cell_length_b                     3.29500
_cell_length_c                     3.29500
_cell_angle_alpha                  90.00
_cell_angle_beta                   90.00
_cell_angle_gamma                  90.00
_cell_volume                       35.77
_cell_formula_units_Z              2

loop_
_atom_site_label
_atom_site_symmetry_multiplicity
_atom_site_Wyckoff_symbol
_atom_site_fract_x
_atom_site_fract_y
_atom_site_fract_z
_atom_site_occupancy
Ta1      2 a   0.00000   0.00000   0.00000 1.0
##
